LTspice 24.0.12 for Windows
Circuit: * D:\allLabs\RadioTechLab4\1.asc
Start Time: Fri May 31 20:27:07 2024
solver = Normal
Maximum thread count: 4
tnom = 27
temp = 27
method = modified trap
.OP point found by inspection.
Total elapsed time: 1.380 seconds.

