LTspice 24.0.12 for Windows
Circuit: * D:\allLabs\RadioTechLab4\3.asc
Start Time: Wed Jun  5 09:33:10 2024
solver = Normal
Maximum thread count: 4
tnom = 27
temp = 27
method = modified trap
.OP point found by inspection.
Heightened Def Con from 0.000519152 to 0.000519152
Total elapsed time: 12.054 seconds.

