LTspice 24.0.12 for Windows
Circuit: * D:\allLabs\RadioTechLab4\4.asc
Start Time: Wed Jun  5 09:32:31 2024
