LTspice 24.0.12 for Windows
Circuit: * D:\allLabs\RadioTechLab4\5.asc
Start Time: Wed Jun  5 09:40:04 2024
solver = Normal
Maximum thread count: 4
tnom = 27
temp = 27
method = modified trap
rg58: using linear interpolation because trytocompact option specified
Note: thermal noise of lossy transmissions lines is ignored.
.OP point found by inspection.
Total elapsed time: 0.274 seconds.

