LTspice 24.0.12 for Windows
Circuit: * D:\allLabs\RadioTechLab3\3.asc
Start Time: Wed May 29 14:23:33 2024
solver = Normal
Maximum thread count: 4
tnom = 27
temp = 27
method = modified trap
.OP point found by inspection.
Total elapsed time: 1.020 seconds.

